atom_style full

#-----------------------------------BUCKINGHAM---------------------------------------
pair_style buck/long/coul/long cut long 11.0
bond_style harmonic
angle_style harmonic
dihedral_style none
improper_style harmonic

kspace_style pppm 0.0001
pair_modify shift yes
read_data data_buck.data
Reading data file ...
  orthogonal box = (-13.5 -13.5 -13.5) to (13.5 13.5 13.5)
  reading atoms ...
  1050 atoms
  reading velocities ...
  1050 velocities
  scanning bonds ...
  scanning angles ...
  scanning impropers ...
  orthogonal box = (-13.5 -13.5 -13.5) to (13.5 13.5 13.5)
  reading bonds ...
  630 bonds
  reading angles ...
  630 angles
  reading impropers ...
  210 impropers
Finding 1-2 1-3 1-4 neighbors ...
     3 = max # of 1-2 neighbors
     2 = max # of 1-3 neighbors
     2 = max # of 1-4 neighbors
     3 = max # of special neighbors

group Na type 1
210 atoms in group Na
group N type 2
210 atoms in group N
group O type 3
630 atoms in group O

# 1 Na 2 N 3 O
pair_coeff 1 1 9778.06 0.3170 24.18
pair_coeff 1 2 18139.97 0.2884 79.149
pair_coeff 1 3 24650.29 0.2727 79.193
pair_coeff 2 2 33652.75 0.2646 259.079
pair_coeff 2 3 45730.51 0.2513 259.22
pair_coeff 3 3 62142.9 0.2392 259.367
neighbor 2.0 bin
#neigh_modify one 5000

neigh_modify delay 5 check yes
replicate 6 4 2
Replication is creating a 6x4x2 = 48 times larger system...
  orthogonal box = (-13.5 -13.5 -13.5) to (148.5 94.5 40.5)
  50400 atoms
  30240 bonds
  30240 angles
  10080 impropers
Finding 1-2 1-3 1-4 neighbors ...
     3 = max # of 1-2 neighbors
     2 = max # of 1-3 neighbors
     2 = max # of 1-4 neighbors
     3 = max # of special neighbors
  replicate CPU = 0.023 seconds

write_restart restart.NaNO3_supercell
System init for write_restart ...
PPPM initialization ...
  G vector (1/distance) = 0.24196708
  grid = 72 50 30
  stencil order = 5
  estimated absolute RMS force accuracy = 0.034752741
  estimated relative force accuracy = 0.00010465685
  3d grid and FFT values/proc = 83435 54000
Generated 0 of 3 mixed pair_coeff terms from geometric mixing rule
restart 100 NaNO3_restart_equil_1 NaNO3_restart_equil_2

#--------------------------VARIABLES GLOBALES--------------------------------------------
#variable	boltzmann equal 8.617333262e-5
#variable        temp equal temp
#variable        step equal step
#variable        time equal time
#variable        avogadro equal 6.02214e23
#variable        vol equal vol
#variable        volCM3 equal  (vol*1.0e-24)
#variable        eTotal equal etotal
#variable        NumAtoms equal count(all)
#variable        densidad equal ((84.994/5)*v_NumAtoms)/(v_avogadro*v_vol*1.0e-24)
#variable        etotalatom equal etotal/atoms
#compute         msd all msd
#variable	msd equal c_msd[4]

compute         Stress all stress/atom NULL virial
compute         pe all pe/atom
compute         ke all ke/atom

#### ---------------------------------------------OUTPUT FILES---------------------------------------------------

thermo_style custom step etotal ecoul ebond press lx ly lz vol temp
#thermo_modify flush yes lost ignore lost/bond ignore
thermo 1000

##### Minimizaci√≥n
minimize     0 1.0e-4 2000 20000
PPPM initialization ...
  G vector (1/distance) = 0.24196708
  grid = 72 50 30
  stencil order = 5
  estimated absolute RMS force accuracy = 0.034752741
  estimated relative force accuracy = 0.00010465685
  3d grid and FFT values/proc = 83435 54000
Generated 0 of 3 mixed pair_coeff terms from geometric mixing rule
Step         TotEng         E_coul         E_bond         Press            Lx             Ly             Lz           Volume          Temp
0  -1540888.2     -268208.33      1254.1155      1182.8417      162            108            54             944784         0
Loop time of 848.896 on 2 procs for 2000 steps with 50400 atoms

Minimization stats:
  Stopping criterion = max iterations
  Energy initial, next-to-last, final =
  Force two-norm initial, final = 1941.9624 38.81476
  Force max component initial, final = 64.878388 7.77745
  Final line search alpha, max atom move = 0.0035374753 0.027512537
  Iterations, force evaluations = 2000 3960

reset_timestep 0

dump mydump all  custom 1000 jayaraman_original.dump  id element x y z vx vy vz
dump_modify     mydump element Na O N first yes

timestep        1  # 1 fs

#---------------------------------Equilibrio inicial---------------------------------------------

fix nve all nve
velocity        all create 300.0 4193182 rot yes mom yes dist gaussian
run 30000
PPPM initialization ...
  G vector (1/distance) = 0.24196708
  grid = 72 50 30
  stencil order = 5
  estimated absolute RMS force accuracy = 0.034752741
  estimated relative force accuracy = 0.00010465685
  3d grid and FFT values/proc = 83435 54000
Generated 0 of 3 mixed pair_coeff terms from geometric mixing rule
Step         TotEng         E_coul         E_bond         Press            Lx             Ly             Lz           Volume          Temp
0  -1642786       -380462.39      178.85709     -3755.6761      162            108            54             944784         300
Averages over the last 16 of 31 rows, steps 15000 to 30000:
TotEng E_coul E_bond Press Lx Ly Lz Volume Temp
-1.64269e+06 -370693 4816.58 -4879.02 162 108 54 944784 173.976
Loop time of 3913.06 on 2 procs for 30000 steps with 50400 atoms

unfix nve

#--------------------------------Calentamiento----------------------------------------------------

fix nvt all nvt temp 293.0 1300.0 $(100*dt)
fix nvt all nvt temp 293.0 1300.0 100
run 300000  #0.3 ns
PPPM initialization ...
  G vector (1/distance) = 0.24196708
  grid = 72 50 30
  stencil order = 5
  estimated absolute RMS force accuracy = 0.034752741
  estimated relative force accuracy = 0.00010465685
  3d grid and FFT values/proc = 83435 54000
Generated 0 of 3 mixed pair_coeff terms from geometric mixing rule
Step         TotEng         E_coul         E_bond         Press            Lx             Ly             Lz           Volume          Temp
30000  -1642687.7     -371138.8       4863.1361     -5090.5492      162            108            54             944784         176.90959
Averages over the last 151 of 301 rows, steps 180000 to 330000:
TotEng E_coul E_bond Press Lx Ly Lz Volume Temp
-1.35891e+06 -274243 31915 -81.1591 162 108 54 944784 1047.85
Loop time of 40469 on 2 procs for 300000 steps with 50400 atoms

unfix nvt

fix nvt all nvt temp 1300.0 1300.0 $(100*dt)
fix nvt all nvt temp 1300.0 1300.0 100
run 500000 #0.5 ns
PPPM initialization ...
  G vector (1/distance) = 0.24196708
  grid = 72 50 30
  stencil order = 5
  estimated absolute RMS force accuracy = 0.034752741
  estimated relative force accuracy = 0.00010465685
  3d grid and FFT values/proc = 83435 54000
Generated 0 of 3 mixed pair_coeff terms from geometric mixing rule
Step         TotEng         E_coul         E_bond         Press            Lx             Ly             Lz           Volume          Temp
330000  -1282735.2     -254557.45      39312.318      2019.1532      162            108            54             944784         1306.1449
Averages over the last 251 of 501 rows, steps 580000 to 830000:
TotEng E_coul E_bond Press Lx Ly Lz Volume Temp
-1.28246e+06 -254335 39506 1566.48 162 108 54 944784 1299.98
Loop time of 66039.9 on 2 procs for 500000 steps with 50400 atoms

unfix nvt

#-------------------------------Enfriamiento-----------------------------------------------------

fix nvt all nvt temp 1300.0 583.0 $(100*dt)
fix nvt all nvt temp 1300.0 583.0 100
run 1000000 #1 ns
PPPM initialization ...
  G vector (1/distance) = 0.24196708
  grid = 72 50 30
  stencil order = 5
  estimated absolute RMS force accuracy = 0.034752741
  estimated relative force accuracy = 0.00010465685
  3d grid and FFT values/proc = 83435 54000
Generated 0 of 3 mixed pair_coeff terms from geometric mixing rule
Step         TotEng         E_coul         E_bond         Press            Lx             Ly             Lz           Volume          Temp
830000  -1282758.8     -253983.37      39159.958      1473.496       162            108            54             944784         1300.7421
Averages over the last 501 of 1001 rows, steps 1330000 to 1830000:
TotEng E_coul E_bond Press Lx Ly Lz Volume Temp
-1.45306e+06 -305747 23037.2 -1255.52 162 108 54 944784 762.145
Loop time of 140243 on 2 procs for 1000000 steps with 50400 atoms

##### Calculo de viscosidad
#variable 	pxy equal pxy
#fix		aveStress all ave/correlate 10 100 1000 v_pxy type auto
#variable 	visc equal (vol/v_boltzmann*temp)*trap(f_aveStress[1])

##### Calculo tensi√≥n superficial
## Para este c√°lculo es necesario utilizar el tensor de presi√≥n, por lo que es necesario calcularlo.

#replicate	1 1 2
#compute 	pressTensor all pressure NULL
#variable	press equal pzz-0.5*(pxx+pyy)
#fix 		avePress all ave/time 10 100 1000 v_press
#variable	surfaceTension equal 0.5*lz*f_avePress

#####Calculo de la conductividad t√©rmica

#compute		heat_flux all heat/flux ke pe Stress
#fix		heat_flux_corr all ave/correlate 10 100 1000 c_heat_flux[*] type auto
#variable 	thermal_conductivity equal (1/(3*v_boltzmann*vol*temp))*trap(f_heat_flux_corr[1])

#### Calculo del coeficiente de difusi√≥n.
## Basado en el ejemplo de LAMMPS, utilizando el MSD.

#variable 	parPuntos equal c_msd[4]/4/(step*dt+1.0e-6)
#fix		vectorParOrdenado all vector 10 c_msd[4]
#variable 	diffCoeff equal slope(f_vectorParOrdenado)/4/(10*dt)

#fix             nvt all nvt temp 293 293 $(100*dt)
#run             100000
#unfix nvt

#fix             npt all npt iso 0 0 $(1000*dt) temp 293 1300 $(100*dt)
#run             300000
#unfix           npt

#fix             nvt all nvt temp 1300 1300 $(100*dt)

#run             500000
#unfix nvt

#fix             npt all npt iso 0 0 $(1000*dt) temp 1300 583 $(100*dt)
#run             1000000
#unfix           npt

#Se exportan en el siguiente orden para que funcione con la funci√≥n de imprimir RDF en python.

#compute          myRDF all rdf 1000 1 1 1 3 1 2 3 3 2 3 2 2 cutoff 11.0
#fix             ave all ave/time 10 100 10000  c_myRDF[*] file rdf.yml mode vector

#fix             nvt all nvt temp 583 583 $(100*dt)
#run             500000
#unfix nvt

write_data data_buck_EQ.data
System init for write_data ...
PPPM initialization ...
  G vector (1/distance) = 0.24196708
  grid = 72 50 30
  stencil order = 5
  estimated absolute RMS force accuracy = 0.034752741
  estimated relative force accuracy = 0.00010465685
  3d grid and FFT values/proc = 83435 54000
Generated 0 of 3 mixed pair_coeff terms from geometric mixing rule
